version 2
run CQN-B-0-20200216-22:18:10-20130
attr configname CQN-B
attr datetime 20200216-22:18:10
attr experiment CQN-B
attr inifile omnetpp.ini
attr iterationvars ""
attr iterationvarsf ""
attr measurement ""
attr network ClosedQueueingNetB
attr processid 20130
attr repetition 0
attr replication #0
attr resultdir results
attr runnumber 0
attr seedset 0
param *.sDelay 100s
param *.numTandems 3
param *.tandemQueue[*].numQueues 5
param *.tandemQueue[*].queue[*].numInitialJobs 2
param *.tandemQueue[*].queue[*].serviceTime exponential(10s)
param *.tandemQueue[*].qDelay 1s
param *.tandemQueue[0]**.priority 0
param *.tandemQueue[1]**.priority 1
param *.tandemQueue[2]**.priority 2

vector 0 ClosedQueueingNetB.tandemQueue[0].queue[0] queueLength ETV
vector 1 ClosedQueueingNetB.tandemQueue[0].queue[1] queueLength ETV
vector 2 ClosedQueueingNetB.tandemQueue[0].queue[2] queueLength ETV
vector 3 ClosedQueueingNetB.tandemQueue[0].queue[3] queueLength ETV
vector 4 ClosedQueueingNetB.tandemQueue[0].queue[4] queueLength ETV
vector 5 ClosedQueueingNetB.tandemQueue[1].queue[0] queueLength ETV
vector 6 ClosedQueueingNetB.tandemQueue[1].queue[1] queueLength ETV
vector 7 ClosedQueueingNetB.tandemQueue[1].queue[2] queueLength ETV
vector 8 ClosedQueueingNetB.tandemQueue[1].queue[3] queueLength ETV
vector 9 ClosedQueueingNetB.tandemQueue[1].queue[4] queueLength ETV
vector 10 ClosedQueueingNetB.tandemQueue[2].queue[0] queueLength ETV
vector 11 ClosedQueueingNetB.tandemQueue[2].queue[1] queueLength ETV
vector 12 ClosedQueueingNetB.tandemQueue[2].queue[2] queueLength ETV
vector 13 ClosedQueueingNetB.tandemQueue[2].queue[3] queueLength ETV
vector 14 ClosedQueueingNetB.tandemQueue[2].queue[4] queueLength ETV
0	0	0	1
0	0	0	2
0	0	0	1
1	0	0	1
1	0	0	2
1	0	0	1
2	0	0	1
2	0	0	2
2	0	0	1
3	0	0	1
3	0	0	2
3	0	0	1
4	0	0	1
4	0	0	2
4	0	0	1
5	0	0	1
5	0	0	2
5	0	0	1
6	0	0	1
6	0	0	2
6	0	0	1
7	0	0	1
7	0	0	2
7	0	0	1
7	1	0.63475656614	0
8	0	0	1
8	0	0	2
8	0	0	1
9	0	0	1
9	0	0	2
9	0	0	1
10	0	0	1
10	0	0	2
10	0	0	1
11	0	0	1
11	0	0	2
11	0	0	1
12	0	0	1
12	0	0	2
12	0	0	1
13	0	0	1
13	0	0	2
13	0	0	1
14	0	0	1
14	0	0	2
14	0	0	1
6	2	0.665223380669	0
0	5	1.369734266668	0
0	178	117.53760123432	1
0	179	119.08947419262	2
0	183	121.989173278976	3
0	187	125.841922335161	2
0	189	127.143141717051	1
0	194	131.139032664459	0
0	196	131.938390633129	1
1	10	2.369734266668	2
1	49	14.127561406551	3
1	65	18.407881228813	2
1	129	71.079259887836	1
1	135	72.787954520571	0
1	190	128.143141717051	1
1	197	132.139032664459	2
2	4	0.957295570234	0
2	139	73.787954520571	1
2	140	74.641728403544	2
2	147	82.459132188999	1
2	159	93.267227523088	0
3	9	1.957295570234	2
3	12	2.677829947489	1
3	13	3.37829716727	2
3	36	11.408464446925	1
3	37	11.409395691787	0
4	15	3.677829947489	2
4	25	6.503290641373	1
4	40	12.408464446925	2
4	41	12.409395691787	3
4	51	14.657201752762	4
4	93	36.654958161288	3
4	98	39.182195953113	4
4	99	39.659372327634	3
4	121	64.200293717725	2
4	125	66.397995791661	1
4	133	72.187306525203	0
4	162	99.393642270127	1
4	167	100.658621384665	0
5	16	3.75350726685	0
5	177	113.913501144397	1
5	182	121.32483670511	2
5	198	132.320324711948	3
6	19	4.75350726685	1
6	20	4.869595599299	0
7	24	5.869595599299	1
7	46	13.551105207391	2
7	62	17.655155496839	1
7	67	18.700090799759	0
7	90	32.067157339083	1
7	116	58.508652252759	0
8	6	1.63475656614	2
8	8	1.916495029076	3
8	29	8.749927611561	2
8	34	11.144777866273	1
8	50	14.269259398868	0
8	66	18.655155496839	1
8	71	19.700090799759	2
8	88	31.362418998501	1
8	94	36.710897432133	0
9	30	9.749927611561	2
9	39	12.144777866273	3
9	44	12.913501144397	2
9	54	15.269259398868	3
9	58	16.53760123432	2
9	64	18.08947419262	1
9	72	20.32483670511	0
9	96	37.710897432133	1
9	102	43.203060156144	2
9	109	53.486261065639	1
9	112	56.075048070644	0
10	23	5.804463707953	0
11	27	6.804463707953	2
11	32	10.29585324278	1
11	56	15.775364933861	2
11	57	16.318079258379	1
11	75	21.039154899078	0
12	14	3.464397464363	0
12	60	17.318079258379	1
12	78	22.039154899078	2
12	84	28.756685537036	3
12	103	44.187273318084	2
12	111	55.149316939568	1
12	130	71.122168411951	0
13	17	4.358797379481	0
13	18	4.464397464363	1
13	26	6.559276698113	2
13	38	11.418613620593	1
13	59	16.966444874852	0
13	113	56.149316939568	1
13	119	62.221745773669	0
13	132	72.122168411951	1
13	145	79.258782043816	0
13	150	85.595518900137	1
13	151	86.690558436714	0
14	21	5.358797379481	2
14	31	9.782911724095	1
14	42	12.418613620593	2
14	63	17.966444874852	3
14	73	20.699404869225	4
14	74	20.989173278976	3
14	85	30.938390633129	2
14	87	31.320324711948	1
14	105	47.486947018328	0
14	157	88.511872804817	1
14	163	99.468222209649	0

